.model 1N4154 D(Is=0.1p Rs=4 CJO=2p Tt=3n Bv=60 Ibv=0.1p)
* 85-??-?? Original library
