Version 4
SHEET 1 2388 680
WIRE 160 -64 144 -64
WIRE 272 -64 240 -64
WIRE 416 -64 352 -64
WIRE 816 -64 720 -64
WIRE 1088 -64 816 -64
WIRE 1504 -64 1408 -64
WIRE 1776 -64 1504 -64
WIRE 720 -16 720 -64
WIRE 1408 -16 1408 -64
WIRE 208 48 208 32
WIRE 240 48 208 48
WIRE 336 48 304 48
WIRE 880 48 880 32
WIRE 912 48 880 48
WIRE 1008 48 976 48
WIRE 1568 48 1568 32
WIRE 1600 48 1568 48
WIRE 1696 48 1664 48
WIRE -160 64 -160 32
WIRE -80 64 -80 32
WIRE 208 64 208 48
WIRE 880 64 880 48
WIRE 1568 64 1568 48
WIRE 48 80 32 80
WIRE 144 80 144 -64
WIRE 144 80 112 80
WIRE 176 80 144 80
WIRE 816 80 816 -64
WIRE 848 80 816 80
WIRE 1504 80 1504 -64
WIRE 1536 80 1504 80
WIRE 416 96 416 -64
WIRE 416 96 240 96
WIRE 448 96 416 96
WIRE 1088 96 1088 -64
WIRE 1088 96 912 96
WIRE 1120 96 1088 96
WIRE 1776 96 1776 -64
WIRE 1776 96 1600 96
WIRE 1808 96 1776 96
WIRE 1968 96 1952 96
WIRE 2064 96 2032 96
WIRE 2160 96 2144 96
WIRE 176 112 144 112
WIRE 624 112 592 112
WIRE 720 112 720 48
WIRE 720 112 704 112
WIRE 736 112 720 112
WIRE 848 112 816 112
WIRE 1312 112 1280 112
WIRE 1408 112 1408 48
WIRE 1408 112 1392 112
WIRE 1424 112 1408 112
WIRE 1536 112 1504 112
WIRE 208 144 208 128
WIRE 240 144 208 144
WIRE 336 144 304 144
WIRE 816 144 816 112
WIRE 880 144 880 128
WIRE 912 144 880 144
WIRE 1008 144 976 144
WIRE 1504 144 1504 112
WIRE 1568 144 1568 128
WIRE 1600 144 1568 144
WIRE 1696 144 1664 144
WIRE -160 176 -160 144
WIRE -80 176 -80 144
WIRE 208 176 208 144
WIRE 880 176 880 144
WIRE 1568 176 1568 144
WIRE 32 256 32 80
WIRE 32 256 16 256
WIRE 48 256 32 256
WIRE 144 256 144 112
WIRE 144 256 128 256
WIRE 160 256 144 256
WIRE 416 256 416 96
WIRE 416 256 240 256
WIRE 816 256 816 208
WIRE 1504 256 1504 208
FLAG -160 176 0
FLAG -80 176 0
FLAG -160 32 vreg_10
FLAG -80 32 vsplit_gnd
FLAG 208 32 vreg_10
FLAG 208 176 0
FLAG 336 144 vsplit_gnd
FLAG 336 48 vsplit_gnd
FLAG 16 256 vsplit_gnd
FLAG 448 96 vsquare
FLAG 880 32 vreg_10
FLAG 880 176 0
FLAG 1008 144 vsplit_gnd
FLAG 1008 48 vsplit_gnd
FLAG 1120 96 vfilt_50
FLAG 592 112 vsquare
FLAG 816 256 vsplit_gnd
FLAG 1568 32 vreg_10
FLAG 1568 176 0
FLAG 1696 144 vsplit_gnd
FLAG 1696 48 vsplit_gnd
FLAG 1808 96 vfilt_90
FLAG 1280 112 vfilt_50
FLAG 1504 256 vsplit_gnd
FLAG 1952 96 vfilt_90
FLAG 2160 96 vsine_50
SYMBOL Opamps\\UniversalOpamp2 208 96 R0
SYMATTR InstName U1
SYMBOL voltage -160 48 R0
WINDOW 123 0 0 Left 2
WINDOW 39 0 0 Left 2
SYMATTR InstName V1
SYMATTR Value 10
SYMBOL voltage -80 48 R0
WINDOW 123 0 0 Left 2
WINDOW 39 0 0 Left 2
SYMATTR InstName V2
SYMATTR Value 5
SYMBOL cap 304 128 R90
WINDOW 0 0 32 VBottom 2
WINDOW 3 32 32 VTop 2
SYMATTR InstName C1
SYMATTR Value 1µ
SYMBOL cap 304 32 R90
WINDOW 0 0 32 VBottom 2
WINDOW 3 32 32 VTop 2
SYMATTR InstName C2
SYMATTR Value 1µ
SYMBOL res 256 240 R90
WINDOW 0 0 56 VBottom 2
WINDOW 3 32 56 VTop 2
SYMATTR InstName R1
SYMATTR Value 200K
SYMBOL res 144 240 R90
WINDOW 0 0 56 VBottom 2
WINDOW 3 32 56 VTop 2
SYMATTR InstName R2
SYMATTR Value 100K
SYMBOL cap 112 64 R90
WINDOW 0 0 32 VBottom 2
WINDOW 3 32 32 VTop 2
SYMATTR InstName C3
SYMATTR Value 470n
SYMBOL res 368 -80 R90
WINDOW 0 0 56 VBottom 2
WINDOW 3 32 56 VTop 2
SYMATTR InstName R3
SYMATTR Value 10.7K
SYMBOL res 256 -80 R90
WINDOW 0 0 56 VBottom 2
WINDOW 3 32 56 VTop 2
SYMATTR InstName R4
SYMATTR Value 20K
SYMBOL Opamps\\UniversalOpamp2 880 96 R0
SYMATTR InstName U2
SYMBOL cap 976 128 R90
WINDOW 0 0 32 VBottom 2
WINDOW 3 32 32 VTop 2
SYMATTR InstName C4
SYMATTR Value 1µ
SYMBOL cap 976 32 R90
WINDOW 0 0 32 VBottom 2
WINDOW 3 32 32 VTop 2
SYMATTR InstName C5
SYMATTR Value 1µ
SYMBOL res 832 96 R90
WINDOW 0 0 56 VBottom 2
WINDOW 3 32 56 VTop 2
SYMATTR InstName R5
SYMATTR Value 225K
SYMBOL res 720 96 R90
WINDOW 0 0 56 VBottom 2
WINDOW 3 32 56 VTop 2
SYMATTR InstName R6
SYMATTR Value 225K
SYMBOL cap 832 208 R180
WINDOW 0 24 56 Left 2
WINDOW 3 24 8 Left 2
SYMATTR InstName C6
SYMATTR Value 10n
SYMBOL cap 736 48 R180
WINDOW 0 24 56 Left 2
WINDOW 3 24 8 Left 2
SYMATTR InstName C7
SYMATTR Value 20n
SYMBOL Opamps\\UniversalOpamp2 1568 96 R0
SYMATTR InstName U3
SYMBOL cap 1664 128 R90
WINDOW 0 0 32 VBottom 2
WINDOW 3 32 32 VTop 2
SYMATTR InstName C8
SYMATTR Value 1µ
SYMBOL cap 1664 32 R90
WINDOW 0 0 32 VBottom 2
WINDOW 3 32 32 VTop 2
SYMATTR InstName C9
SYMATTR Value 1µ
SYMBOL res 1520 96 R90
WINDOW 0 0 56 VBottom 2
WINDOW 3 32 56 VTop 2
SYMATTR InstName R7
SYMATTR Value 125K
SYMBOL res 1408 96 R90
WINDOW 0 0 56 VBottom 2
WINDOW 3 32 56 VTop 2
SYMATTR InstName R8
SYMATTR Value 125K
SYMBOL cap 1520 208 R180
WINDOW 0 24 56 Left 2
WINDOW 3 24 8 Left 2
SYMATTR InstName C10
SYMATTR Value 10n
SYMBOL cap 1424 48 R180
WINDOW 0 24 56 Left 2
WINDOW 3 24 8 Left 2
SYMATTR InstName C11
SYMATTR Value 20n
SYMBOL res 2160 80 R90
WINDOW 0 0 56 VBottom 2
WINDOW 3 32 56 VTop 2
SYMATTR InstName R9
SYMATTR Value 625K
SYMBOL cap 2032 80 R90
WINDOW 0 0 32 VBottom 2
WINDOW 3 32 32 VTop 2
SYMATTR InstName C12
SYMATTR Value 10n
TEXT -194 318 Left 2 !.tran 0 2 0 0.0001
