Version 4
SHEET 1 2596 680
WIRE 176 -112 144 -112
WIRE 288 -112 256 -112
WIRE 416 -112 368 -112
WIRE 896 -80 800 -80
WIRE 1216 -80 896 -80
WIRE 1664 -80 1568 -80
WIRE 1984 -80 1664 -80
WIRE 800 -32 800 -80
WIRE 1568 -32 1568 -80
WIRE 2416 16 2304 16
WIRE 960 32 960 16
WIRE 992 32 960 32
WIRE 1088 32 1056 32
WIRE 1728 32 1728 16
WIRE 1760 32 1728 32
WIRE 1856 32 1824 32
WIRE 208 48 208 32
WIRE 240 48 208 48
WIRE 336 48 304 48
WIRE 960 48 960 32
WIRE 1728 48 1728 32
WIRE 208 64 208 48
WIRE 896 64 896 -80
WIRE 928 64 896 64
WIRE 1664 64 1664 -80
WIRE 1696 64 1664 64
WIRE 48 80 32 80
WIRE 144 80 144 -112
WIRE 144 80 112 80
WIRE 176 80 144 80
WIRE 1216 80 1216 -80
WIRE 1216 80 992 80
WIRE 1264 80 1216 80
WIRE 1984 80 1984 -80
WIRE 1984 80 1760 80
WIRE 2016 80 1984 80
WIRE 2224 80 2208 80
WIRE 2304 80 2304 16
WIRE 2304 80 2288 80
WIRE 2320 80 2304 80
WIRE 2416 80 2400 80
WIRE 416 96 416 -112
WIRE 416 96 240 96
WIRE 448 96 416 96
WIRE 704 96 672 96
WIRE 800 96 800 32
WIRE 800 96 784 96
WIRE 816 96 800 96
WIRE 928 96 896 96
WIRE 1472 96 1440 96
WIRE 1568 96 1568 32
WIRE 1568 96 1552 96
WIRE 1584 96 1568 96
WIRE 1696 96 1664 96
WIRE -368 112 -368 80
WIRE -240 112 -240 80
WIRE 176 112 144 112
WIRE 960 128 960 112
WIRE 992 128 960 128
WIRE 1088 128 1056 128
WIRE 1728 128 1728 112
WIRE 1760 128 1728 128
WIRE 1856 128 1824 128
WIRE 208 144 208 128
WIRE 240 144 208 144
WIRE 336 144 304 144
WIRE 896 160 896 96
WIRE 960 160 960 128
WIRE 1664 160 1664 96
WIRE 1728 160 1728 128
WIRE 208 176 208 144
WIRE -368 224 -368 192
WIRE -240 224 -240 192
WIRE 32 256 32 80
WIRE 32 256 16 256
WIRE 48 256 32 256
WIRE 144 256 144 112
WIRE 144 256 128 256
WIRE 160 256 144 256
WIRE 416 256 416 96
WIRE 416 256 240 256
WIRE 896 272 896 224
WIRE 1664 272 1664 224
FLAG -368 224 0
FLAG -240 224 0
FLAG -368 80 vreg_10
FLAG -240 80 vsplit_gnd
FLAG 208 32 vreg_10
FLAG 208 176 0
FLAG 336 144 vsplit_gnd
FLAG 336 48 vsplit_gnd
FLAG 16 256 vsplit_gnd
FLAG 448 96 vsquare
FLAG 960 16 vreg_10
FLAG 960 160 0
FLAG 1088 128 vsplit_gnd
FLAG 1088 32 vsplit_gnd
FLAG 1264 80 vfilt_50
FLAG 672 96 vsquare
FLAG 896 272 vsplit_gnd
FLAG 1728 16 vreg_10
FLAG 1728 160 0
FLAG 1856 128 vsplit_gnd
FLAG 1856 32 vsplit_gnd
FLAG 2016 80 vfilt_90
FLAG 1440 96 vfilt_50
FLAG 1664 272 vsplit_gnd
FLAG 2208 80 vfilt_90
FLAG 2416 16 vsine_50
FLAG 2416 80 vsplit_gnd
SYMBOL Opamps\\UniversalOpamp2 208 96 R0
SYMATTR InstName U1
SYMBOL voltage -368 96 R0
WINDOW 123 0 0 Left 2
WINDOW 39 0 0 Left 2
SYMATTR InstName V1
SYMATTR Value 10
SYMBOL voltage -240 96 R0
WINDOW 123 0 0 Left 2
WINDOW 39 0 0 Left 2
SYMATTR InstName V2
SYMATTR Value 5
SYMBOL cap 304 128 R90
WINDOW 0 0 32 VBottom 2
WINDOW 3 32 32 VTop 2
SYMATTR InstName C1
SYMATTR Value 1µ
SYMBOL cap 304 32 R90
WINDOW 0 0 32 VBottom 2
WINDOW 3 32 32 VTop 2
SYMATTR InstName C2
SYMATTR Value 1µ
SYMBOL res 256 240 R90
WINDOW 0 0 56 VBottom 2
WINDOW 3 32 56 VTop 2
SYMATTR InstName R1
SYMATTR Value 200K
SYMBOL res 144 240 R90
WINDOW 0 0 56 VBottom 2
WINDOW 3 32 56 VTop 2
SYMATTR InstName R2
SYMATTR Value 100K
SYMBOL cap 112 64 R90
WINDOW 0 0 32 VBottom 2
WINDOW 3 32 32 VTop 2
SYMATTR InstName C3
SYMATTR Value 470n
SYMBOL res 384 -128 R90
WINDOW 0 0 56 VBottom 2
WINDOW 3 32 56 VTop 2
SYMATTR InstName R3
SYMATTR Value 11K
SYMBOL res 272 -128 R90
WINDOW 0 0 56 VBottom 2
WINDOW 3 32 56 VTop 2
SYMATTR InstName R4
SYMATTR Value 20K
SYMBOL Opamps\\UniversalOpamp2 960 80 R0
SYMATTR InstName U2
SYMBOL cap 1056 112 R90
WINDOW 0 0 32 VBottom 2
WINDOW 3 32 32 VTop 2
SYMATTR InstName C4
SYMATTR Value 1µ
SYMBOL cap 1056 16 R90
WINDOW 0 0 32 VBottom 2
WINDOW 3 32 32 VTop 2
SYMATTR InstName C5
SYMATTR Value 1µ
SYMBOL res 912 80 R90
WINDOW 0 0 56 VBottom 2
WINDOW 3 32 56 VTop 2
SYMATTR InstName R5
SYMATTR Value 225K
SYMBOL res 800 80 R90
WINDOW 0 0 56 VBottom 2
WINDOW 3 32 56 VTop 2
SYMATTR InstName R6
SYMATTR Value 225K
SYMBOL cap 912 224 R180
WINDOW 0 24 56 Left 2
WINDOW 3 24 8 Left 2
SYMATTR InstName C6
SYMATTR Value 10n
SYMBOL cap 816 32 R180
WINDOW 0 24 56 Left 2
WINDOW 3 24 8 Left 2
SYMATTR InstName C7
SYMATTR Value 20n
SYMBOL Opamps\\UniversalOpamp2 1728 80 R0
SYMATTR InstName U3
SYMBOL cap 1824 112 R90
WINDOW 0 0 32 VBottom 2
WINDOW 3 32 32 VTop 2
SYMATTR InstName C8
SYMATTR Value 1µ
SYMBOL cap 1824 16 R90
WINDOW 0 0 32 VBottom 2
WINDOW 3 32 32 VTop 2
SYMATTR InstName C9
SYMATTR Value 1µ
SYMBOL res 1680 80 R90
WINDOW 0 0 56 VBottom 2
WINDOW 3 32 56 VTop 2
SYMATTR InstName R7
SYMATTR Value 125K
SYMBOL res 1568 80 R90
WINDOW 0 0 56 VBottom 2
WINDOW 3 32 56 VTop 2
SYMATTR InstName R8
SYMATTR Value 125K
SYMBOL cap 1680 224 R180
WINDOW 0 24 56 Left 2
WINDOW 3 24 8 Left 2
SYMATTR InstName C10
SYMATTR Value 10n
SYMBOL cap 1584 32 R180
WINDOW 0 24 56 Left 2
WINDOW 3 24 8 Left 2
SYMATTR InstName C11
SYMATTR Value 20n
SYMBOL res 2416 64 R90
WINDOW 0 0 56 VBottom 2
WINDOW 3 32 56 VTop 2
SYMATTR InstName R9
SYMATTR Value 625K
SYMBOL cap 2288 64 R90
WINDOW 0 0 32 VBottom 2
WINDOW 3 32 32 VTop 2
SYMATTR InstName C12
SYMATTR Value 10n
TEXT -192 320 Left 2 !.tran 0 2 0 0.0001
